/*--------------------------------*- C++ -*----------------------------------*\
  =========                 |
  \\      /  F ield         | OpenFOAM: The Open Source CFD Toolbox
   \\    /   O peration     | Website:  https://openfoam.org
    \\  /    A nd           | Version:  7
     \\/     M anipulation  |
\*---------------------------------------------------------------------------*/
FoamFile
{
    version     2.0;
    format      ascii;
    class       polyBoundaryMesh;
    location    "constant/polyMesh";
    object      boundary;
}
// * * * * * * * * * * * * * * * * * * * * * * * * * * * * * * * * * * * * * //

4
(
    frontAndBack
    {
        type            empty;
        nFaces          11872;
        startFace       8804;
    }
    hot
    {
        type            patch;
        nFaces          50;
        startFace       20676;
    }
    cold
    {
        type            patch;
        nFaces          50;
        startFace       20726;
    }
    defaultFaces
    {
        type            patch;
        nFaces          100;
        startFace       20776;
    }
)

// ************************************************************************* //
