/*--------------------------------*- C++ -*----------------------------------*\
  =========                 |
  \\      /  F ield         | OpenFOAM: The Open Source CFD Toolbox
   \\    /   O peration     | Website:  https://openfoam.org
    \\  /    A nd           | Version:  7
     \\/     M anipulation  |
\*---------------------------------------------------------------------------*/
FoamFile
{
    version     2.0;
    format      ascii;
    class       volVectorField;
    object      D;
}
// * * * * * * * * * * * * * * * * * * * * * * * * * * * * * * * * * * * * * //

dimensions      [0 1 0 0 0 0 0];

internalField   uniform (0 0 0);

boundaryField
{
    down_up
    {
        type            tractionDisplacement;
        traction        uniform (0 0 10000);
        pressure        uniform 0;
        value           uniform (0 0 0);
    }
    down
    {
        type            fixedValue;
        value        uniform (0 0 0);
    }
    up_1
    {
        type            tractionDisplacement;
        traction        uniform (0 0 -10000);
        pressure        uniform 0;
        value           uniform (0 0 0);
    }
    defaultFaces
    {
        type            tractionDisplacement;
        traction        uniform (0 0 0);
        pressure        uniform 0;
        value           uniform (0 0 0);
    }
}

// ************************************************************************* //
