/*--------------------------------*- C++ -*----------------------------------*\
  =========                 |
  \\      /  F ield         | OpenFOAM: The Open Source CFD Toolbox
   \\    /   O peration     | Website:  https://openfoam.org
    \\  /    A nd           | Version:  7
     \\/     M anipulation  |
\*---------------------------------------------------------------------------*/
FoamFile
{
    version     2.0;
    format      ascii;
    class       polyBoundaryMesh;
    location    "constant/polyMesh";
    object      boundary;
}
// * * * * * * * * * * * * * * * * * * * * * * * * * * * * * * * * * * * * * //

4
(
    down
    {
        type            patch;
        nFaces          354;
        startFace       20565;
    }
    up_1
    {
        type            patch;
        nFaces          320;
        startFace       20919;
    }
    down_up
    {
        type            patch;
        nFaces          262;
        startFace       21239;
    }
    defaultFaces
    {
        type            patch;
        nFaces          2222;
        startFace       21501;
    }
)

// ************************************************************************* //
