/*--------------------------------*- C++ -*----------------------------------*\
  =========                 |
  \\      /  F ield         | OpenFOAM: The Open Source CFD Toolbox
   \\    /   O peration     | Website:  https://openfoam.org
    \\  /    A nd           | Version:  7
     \\/     M anipulation  |
\*---------------------------------------------------------------------------*/
FoamFile
{
    version     2.0;
    format      ascii;
    class       polyBoundaryMesh;
    location    "constant/polyMesh";
    object      boundary;
}
// * * * * * * * * * * * * * * * * * * * * * * * * * * * * * * * * * * * * * //

4
(
    front_back
    {
        type            empty;
        nFaces          5672;
        startFace       4129;
    }
    hot
    {
        type            wall;
        nFaces          40;
        startFace       9801;
    }
    cold
    {
        type            wall;
        nFaces          40;
        startFace       9841;
    }
    defaultFaces
    {
        type            wall;
        nFaces          170;
        startFace       9881;
    }
)

// ************************************************************************* //
